Version 4.1
SHEET 1 880 680
WIRE 160 80 112 80
